<?xml version="1.0" encoding="UTF-8"?>

<net version="0.13" xmlns:xsi="http://www.w3.org/2001/XMLSchema-instance" xsi:noNamespaceSchemaLocation="http://sumo.sf.net/xsd/net_file.xsd">

    <location netOffset="0.00,0.00" convBoundary="0.00,0.00,1000.18,500.99" origBoundary="20.000000,40.000000,20.100000,40.000000" projParameter="+proj=utm +zone=34 +ellps=WGS84 +datum=WGS84 +units=m +no_defs"/>

    <edge id="12345678" from="1" to="2" priority="13" type="highway.motorway" spreadType="center" shape="0.00,0.0 5000.18,0.00">
        <lane id="12345678_0" index="0" speed="44.44" length="5000" shape="0.00,0.0 5000,0.00"/>
        <lane id="12345678_1" index="1" speed="44.44" length="5000" shape="0.00,3.3  5000,3.30"/>
        <lane id="12345678_2" index="2" speed="44.44" length="5000" shape="0.00,6.6 5000,6.60"/>
		<lane id="12345678_3" index="3" speed="44.44" length="5000" shape="0.00,9.9 5000,9.90"/>
    </edge>

    <junction id="1" type="unregulated" x="5000.18" y="0.00" incLanes="12345678_0 12345678_1 12345678_2 12345678_3" intLanes="" shape="5000.13,0.0 5000.23,0.0"/>
    <junction id="2" type="unregulated" x="0.00" y="0.00" incLanes="" intLanes="" shape="0.05,0.0 -0.05,0.0"/>

</net>
